mol_17 1
     RDKit          3D

 18 17  0  0  0  0  0  0  0  0999 V2000
    2.2280   -0.1292   -0.0897 C   0  0  0  0  0  0  0  0  0  0  0  0
    0.9472   -0.0993    0.7322 C   0  0  0  0  0  0  0  0  0  0  0  0
   -0.3338   -0.2029   -0.1144 C   0  0  0  0  0  0  0  0  0  0  0  0
   -0.4941    0.9853   -1.0687 C   0  0  0  0  0  0  0  0  0  0  0  0
   -1.5545   -0.3196    0.8105 C   0  0  0  0  0  0  0  0  0  0  0  0
   -2.7424   -0.5414    0.0611 O   0  0  0  0  0  0  0  0  0  0  0  0
    2.2599   -1.0115   -0.7365 H   0  0  0  0  0  0  0  0  0  0  0  0
    2.3270    0.7638   -0.7135 H   0  0  0  0  0  0  0  0  0  0  0  0
    3.0980   -0.1645    0.5740 H   0  0  0  0  0  0  0  0  0  0  0  0
    0.9281    0.8179    1.3335 H   0  0  0  0  0  0  0  0  0  0  0  0
    0.9783   -0.9384    1.4386 H   0  0  0  0  0  0  0  0  0  0  0  0
   -0.2830   -1.1109   -0.7296 H   0  0  0  0  0  0  0  0  0  0  0  0
   -0.5086    1.9331   -0.5200 H   0  0  0  0  0  0  0  0  0  0  0  0
    0.3230    1.0249   -1.7953 H   0  0  0  0  0  0  0  0  0  0  0  0
   -1.4253    0.9116   -1.6400 H   0  0  0  0  0  0  0  0  0  0  0  0
   -1.4391   -1.1544    1.5100 H   0  0  0  0  0  0  0  0  0  0  0  0
   -1.6916    0.5945    1.3978 H   0  0  0  0  0  0  0  0  0  0  0  0
   -2.6170   -1.3589   -0.4502 H   0  0  0  0  0  0  0  0  0  0  0  0
  1  2  1  0
  2  3  1  0
  3  4  1  0
  3  5  1  0
  5  6  1  0
  1  7  1  0
  1  8  1  0
  1  9  1  0
  2 10  1  0
  2 11  1  0
  3 12  1  0
  4 13  1  0
  4 14  1  0
  4 15  1  0
  5 16  1  0
  5 17  1  0
  6 18  1  0
M  END
>  <Energy>  (1) 
3.8440639513443013

>  <Real charge>  (1) 
0

>  <Mult>  (1) 
1

$$$$
mol_17 2
     RDKit          3D

 18 17  0  0  0  0  0  0  0  0999 V2000
    1.6905   -0.3777    1.1553 C   0  0  0  0  0  0  0  0  0  0  0  0
    0.9057    0.5688    0.2585 C   0  0  0  0  0  0  0  0  0  0  0  0
   -0.1065   -0.1466   -0.6567 C   0  0  0  0  0  0  0  0  0  0  0  0
   -0.7773    0.8850   -1.5709 C   0  0  0  0  0  0  0  0  0  0  0  0
   -1.1680   -0.9544    0.1038 C   0  0  0  0  0  0  0  0  0  0  0  0
   -1.9348   -0.1363    0.9760 O   0  0  0  0  0  0  0  0  0  0  0  0
    2.4662    0.1749    1.6954 H   0  0  0  0  0  0  0  0  0  0  0  0
    2.1798   -1.1609    0.5680 H   0  0  0  0  0  0  0  0  0  0  0  0
    1.0456   -0.8526    1.9003 H   0  0  0  0  0  0  0  0  0  0  0  0
    1.6221    1.1170   -0.3666 H   0  0  0  0  0  0  0  0  0  0  0  0
    0.4015    1.3186    0.8796 H   0  0  0  0  0  0  0  0  0  0  0  0
    0.4458   -0.8469   -1.2969 H   0  0  0  0  0  0  0  0  0  0  0  0
   -1.4805    0.3989   -2.2554 H   0  0  0  0  0  0  0  0  0  0  0  0
   -0.0308    1.4075   -2.1788 H   0  0  0  0  0  0  0  0  0  0  0  0
   -1.3279    1.6363   -0.9949 H   0  0  0  0  0  0  0  0  0  0  0  0
   -0.7177   -1.7625    0.6889 H   0  0  0  0  0  0  0  0  0  0  0  0
   -1.8614   -1.4220   -0.6037 H   0  0  0  0  0  0  0  0  0  0  0  0
   -1.3524    0.1531    1.6981 H   0  0  0  0  0  0  0  0  0  0  0  0
  1  2  1  0
  2  3  1  0
  3  4  1  0
  3  5  1  0
  5  6  1  0
  1  7  1  0
  1  8  1  0
  1  9  1  0
  2 10  1  0
  2 11  1  0
  3 12  1  0
  4 13  1  0
  4 14  1  0
  4 15  1  0
  5 16  1  0
  5 17  1  0
  6 18  1  0
M  END
>  <Energy>  (2) 
4.080998304419573

>  <Real charge>  (2) 
0

>  <Mult>  (2) 
1

$$$$
