mol_62 1
     RDKit          3D

 20 19  0  0  0  0  0  0  0  0999 V2000
   -3.3482    0.6416   -0.2742 C   0  0  0  0  0  0  0  0  0  0  0  0
   -1.8767    0.7944    0.0667 C   0  0  0  0  0  0  0  0  0  0  0  0
   -1.2731   -0.5146    0.5634 C   0  0  0  0  0  0  0  0  0  0  0  0
    0.1028   -0.3158    0.9246 O   0  0  0  0  0  0  0  0  0  0  0  0
    1.0069   -0.4458   -0.0882 C   0  0  0  0  0  0  0  0  0  0  0  0
    0.7327   -0.7065   -1.2505 O   0  0  0  0  0  0  0  0  0  0  0  0
    2.3972   -0.2132    0.4534 C   0  0  0  0  0  0  0  0  0  0  0  0
    3.4583   -0.3399   -0.6255 C   0  0  0  0  0  0  0  0  0  0  0  0
   -3.9236    0.3275    0.6025 H   0  0  0  0  0  0  0  0  0  0  0  0
   -3.7573    1.5941   -0.6254 H   0  0  0  0  0  0  0  0  0  0  0  0
   -3.4922   -0.1020   -1.0646 H   0  0  0  0  0  0  0  0  0  0  0  0
   -1.3299    1.1496   -0.8144 H   0  0  0  0  0  0  0  0  0  0  0  0
   -1.7501    1.5696    0.8319 H   0  0  0  0  0  0  0  0  0  0  0  0
   -1.7922   -0.8474    1.4689 H   0  0  0  0  0  0  0  0  0  0  0  0
   -1.3750   -1.3180   -0.1760 H   0  0  0  0  0  0  0  0  0  0  0  0
    2.4372    0.7925    0.8850 H   0  0  0  0  0  0  0  0  0  0  0  0
    2.5903   -0.9497    1.2404 H   0  0  0  0  0  0  0  0  0  0  0  0
    4.4532   -0.1664   -0.2040 H   0  0  0  0  0  0  0  0  0  0  0  0
    3.2937    0.3887   -1.4263 H   0  0  0  0  0  0  0  0  0  0  0  0
    3.4458   -1.3388   -1.0741 H   0  0  0  0  0  0  0  0  0  0  0  0
  1  2  1  0
  2  3  1  0
  3  4  1  0
  4  5  1  0
  5  6  2  0
  5  7  1  0
  7  8  1  0
  1  9  1  0
  1 10  1  0
  1 11  1  0
  2 12  1  0
  2 13  1  0
  3 14  1  0
  3 15  1  0
  7 16  1  0
  7 17  1  0
  8 18  1  0
  8 19  1  0
  8 20  1  0
M  END
>  <Energy>  (1) 
-12.3755972733433

>  <Real charge>  (1) 
0

>  <Mult>  (1) 
1

$$$$
mol_62 2
     RDKit          3D

 20 19  0  0  0  0  0  0  0  0999 V2000
   -2.7698    0.3011    0.4288 C   0  0  0  0  0  0  0  0  0  0  0  0
   -2.0901   -0.1575   -0.8534 C   0  0  0  0  0  0  0  0  0  0  0  0
   -0.8059    0.6166   -1.1391 C   0  0  0  0  0  0  0  0  0  0  0  0
    0.1430    0.4595   -0.0734 O   0  0  0  0  0  0  0  0  0  0  0  0
    0.9342   -0.6461   -0.1427 C   0  0  0  0  0  0  0  0  0  0  0  0
    0.8983   -1.4938   -1.0236 O   0  0  0  0  0  0  0  0  0  0  0  0
    1.8851   -0.6816    1.0244 C   0  0  0  0  0  0  0  0  0  0  0  0
    3.0530    0.2575    0.8009 C   0  0  0  0  0  0  0  0  0  0  0  0
   -2.1317    0.1290    1.3013 H   0  0  0  0  0  0  0  0  0  0  0  0
   -3.7021   -0.2521    0.5800 H   0  0  0  0  0  0  0  0  0  0  0  0
   -3.0117    1.3677    0.3838 H   0  0  0  0  0  0  0  0  0  0  0  0
   -1.8708   -1.2274   -0.7646 H   0  0  0  0  0  0  0  0  0  0  0  0
   -2.7814   -0.0317   -1.6940 H   0  0  0  0  0  0  0  0  0  0  0  0
   -1.0232    1.6874   -1.2183 H   0  0  0  0  0  0  0  0  0  0  0  0
   -0.3695    0.3123   -2.0979 H   0  0  0  0  0  0  0  0  0  0  0  0
    2.2413   -1.7107    1.1449 H   0  0  0  0  0  0  0  0  0  0  0  0
    1.3407   -0.4271    1.9403 H   0  0  0  0  0  0  0  0  0  0  0  0
    2.7139    1.2945    0.7080 H   0  0  0  0  0  0  0  0  0  0  0  0
    3.5921    0.0012   -0.1172 H   0  0  0  0  0  0  0  0  0  0  0  0
    3.7546    0.2010    1.6387 H   0  0  0  0  0  0  0  0  0  0  0  0
  1  2  1  0
  2  3  1  0
  3  4  1  0
  4  5  1  0
  5  6  2  0
  5  7  1  0
  7  8  1  0
  1  9  1  0
  1 10  1  0
  1 11  1  0
  2 12  1  0
  2 13  1  0
  3 14  1  0
  3 15  1  0
  7 16  1  0
  7 17  1  0
  8 18  1  0
  8 19  1  0
  8 20  1  0
M  END
>  <Energy>  (2) 
-11.509242982125862

>  <Real charge>  (2) 
0

>  <Mult>  (2) 
1

$$$$
