mol_23 2
     RDKit          3D

 30 29  0  0  0  0  0  0  0  0999 V2000
   -0.4802    2.7076    0.4152 C   0  0  0  0  0  0  0  0  0  0  0  0
   -1.5152    1.6026    0.3677 C   0  0  0  0  0  0  0  0  0  0  0  0
   -1.1668    0.6922   -0.6633 O   0  0  0  0  0  0  0  0  0  0  0  0
   -1.0803   -0.9022   -0.3534 P   0  0  0  0  0  5  0  0  0  0  0  0
   -0.8039   -1.9203   -1.9945 S   0  0  0  0  0  0  0  0  0  0  0  0
   -2.5395   -1.1549    0.3171 O   0  0  0  0  0  0  0  0  0  0  0  0
   -3.7202   -0.8827   -0.4215 C   0  0  0  0  0  0  0  0  0  0  0  0
   -4.5786   -2.1304   -0.4560 C   0  0  0  0  0  0  0  0  0  0  0  0
    0.3295   -1.1527    1.1859 S   0  0  0  0  0  0  0  0  0  0  0  0
    1.8762   -0.7825    0.3353 C   0  0  0  0  0  0  0  0  0  0  0  0
    3.2037   -0.5109    1.5415 S   0  0  0  0  0  0  0  0  0  0  0  0
    4.6320   -0.4594    0.4137 C   0  0  0  0  0  0  0  0  0  0  0  0
    4.6458    0.7928   -0.4442 C   0  0  0  0  0  0  0  0  0  0  0  0
    0.5117    2.3004    0.6360 H   0  0  0  0  0  0  0  0  0  0  0  0
   -0.4085    3.2116   -0.5543 H   0  0  0  0  0  0  0  0  0  0  0  0
   -0.7346    3.4473    1.1794 H   0  0  0  0  0  0  0  0  0  0  0  0
   -2.4981    2.0210    0.1307 H   0  0  0  0  0  0  0  0  0  0  0  0
   -1.5863    1.1066    1.3400 H   0  0  0  0  0  0  0  0  0  0  0  0
   -3.4944   -0.5432   -1.4367 H   0  0  0  0  0  0  0  0  0  0  0  0
   -4.2563   -0.0761    0.0881 H   0  0  0  0  0  0  0  0  0  0  0  0
   -5.5123   -1.9463   -0.9947 H   0  0  0  0  0  0  0  0  0  0  0  0
   -4.0469   -2.9540   -0.9432 H   0  0  0  0  0  0  0  0  0  0  0  0
   -4.8170   -2.4627    0.5598 H   0  0  0  0  0  0  0  0  0  0  0  0
    1.7425    0.1188   -0.2672 H   0  0  0  0  0  0  0  0  0  0  0  0
    2.1335   -1.6212   -0.3165 H   0  0  0  0  0  0  0  0  0  0  0  0
    5.5372   -0.4846    1.0290 H   0  0  0  0  0  0  0  0  0  0  0  0
    4.6383   -1.3585   -0.2105 H   0  0  0  0  0  0  0  0  0  0  0  0
    3.7979    0.8251   -1.1349 H   0  0  0  0  0  0  0  0  0  0  0  0
    4.6322    1.7003    0.1687 H   0  0  0  0  0  0  0  0  0  0  0  0
    5.5584    0.8164   -1.0494 H   0  0  0  0  0  0  0  0  0  0  0  0
  1  2  1  0
  2  3  1  0
  3  4  1  0
  4  5  2  0
  4  6  1  0
  6  7  1  0
  7  8  1  0
  4  9  1  0
  9 10  1  0
 10 11  1  0
 11 12  1  0
 12 13  1  0
  1 14  1  0
  1 15  1  0
  1 16  1  0
  2 17  1  0
  2 18  1  0
  7 19  1  0
  7 20  1  0
  8 21  1  0
  8 22  1  0
  8 23  1  0
 10 24  1  0
 10 25  1  0
 12 26  1  0
 12 27  1  0
 13 28  1  0
 13 29  1  0
 13 30  1  0
M  END
>  <Energy>  (1) 
-93.09654825392771

>  <Real charge>  (1) 
0

>  <Mult>  (1) 
1

$$$$
mol_23 1
     RDKit          3D

 30 29  0  0  0  0  0  0  0  0999 V2000
   -2.9311   -3.4445   -0.3208 C   0  0  0  0  0  0  0  0  0  0  0  0
   -1.7909   -2.4623   -0.4967 C   0  0  0  0  0  0  0  0  0  0  0  0
   -2.1168   -1.2667    0.1880 O   0  0  0  0  0  0  0  0  0  0  0  0
   -1.2721    0.0934   -0.0948 P   0  0  0  0  0  5  0  0  0  0  0  0
   -1.6040    0.8100   -1.8814 S   0  0  0  0  0  0  0  0  0  0  0  0
   -1.9617    1.0119    1.0577 O   0  0  0  0  0  0  0  0  0  0  0  0
   -1.4207    2.2891    1.3496 C   0  0  0  0  0  0  0  0  0  0  0  0
   -2.4939    3.1269    2.0141 C   0  0  0  0  0  0  0  0  0  0  0  0
    0.7074   -0.2613    0.5268 S   0  0  0  0  0  0  0  0  0  0  0  0
    1.5343   -0.7970   -0.9813 C   0  0  0  0  0  0  0  0  0  0  0  0
    3.1780   -1.4736   -0.6154 S   0  0  0  0  0  0  0  0  0  0  0  0
    4.2297   -0.0616   -1.0865 C   0  0  0  0  0  0  0  0  0  0  0  0
    4.0869    1.1257   -0.1523 C   0  0  0  0  0  0  0  0  0  0  0  0
   -2.7147   -4.3887   -0.8282 H   0  0  0  0  0  0  0  0  0  0  0  0
   -3.8612   -3.0312   -0.7249 H   0  0  0  0  0  0  0  0  0  0  0  0
   -3.1068   -3.6460    0.7411 H   0  0  0  0  0  0  0  0  0  0  0  0
   -1.6312   -2.2658   -1.5605 H   0  0  0  0  0  0  0  0  0  0  0  0
   -0.8735   -2.8807   -0.0728 H   0  0  0  0  0  0  0  0  0  0  0  0
   -1.0732    2.7834    0.4379 H   0  0  0  0  0  0  0  0  0  0  0  0
   -0.5709    2.1677    2.0278 H   0  0  0  0  0  0  0  0  0  0  0  0
   -3.3589    3.2399    1.3523 H   0  0  0  0  0  0  0  0  0  0  0  0
   -2.1123    4.1195    2.2689 H   0  0  0  0  0  0  0  0  0  0  0  0
   -2.8529    2.6410    2.9275 H   0  0  0  0  0  0  0  0  0  0  0  0
    0.9464   -1.5960   -1.4401 H   0  0  0  0  0  0  0  0  0  0  0  0
    1.6016    0.0253   -1.6981 H   0  0  0  0  0  0  0  0  0  0  0  0
    4.0104    0.2281   -2.1191 H   0  0  0  0  0  0  0  0  0  0  0  0
    5.2671   -0.4110   -1.0638 H   0  0  0  0  0  0  0  0  0  0  0  0
    4.8191    1.8953   -0.4191 H   0  0  0  0  0  0  0  0  0  0  0  0
    3.0972    1.5855   -0.2258 H   0  0  0  0  0  0  0  0  0  0  0  0
    4.2686    0.8437    0.8900 H   0  0  0  0  0  0  0  0  0  0  0  0
  1  2  1  0
  2  3  1  0
  3  4  1  0
  4  5  2  0
  4  6  1  0
  6  7  1  0
  7  8  1  0
  4  9  1  0
  9 10  1  0
 10 11  1  0
 11 12  1  0
 12 13  1  0
  1 14  1  0
  1 15  1  0
  1 16  1  0
  2 17  1  0
  2 18  1  0
  7 19  1  0
  7 20  1  0
  8 21  1  0
  8 22  1  0
  8 23  1  0
 10 24  1  0
 10 25  1  0
 12 26  1  0
 12 27  1  0
 13 28  1  0
 13 29  1  0
 13 30  1  0
M  END
>  <Energy>  (2) 
-91.31239157741963

>  <Real charge>  (2) 
0

>  <Mult>  (2) 
1

$$$$
