mol_6 1
     RDKit          3D

 14 15  0  0  0  0  0  0  0  0999 V2000
   -1.6426   -1.0416    0.0174 C   0  0  0  0  0  0  0  0  0  0  0  0
   -1.9564    0.3016    0.1996 C   0  0  0  0  0  0  0  0  0  0  0  0
   -0.9529    1.2753    0.2280 C   0  0  0  0  0  0  0  0  0  0  0  0
    0.3801    0.8613    0.0679 C   0  0  0  0  0  0  0  0  0  0  0  0
    1.8199    1.8094    0.0567 S   0  0  0  0  0  0  0  0  0  0  0  0
    2.7421    0.3880   -0.1857 C   0  0  0  0  0  0  0  0  0  0  0  0
    2.0737   -0.7397   -0.2602 N   0  0  0  0  0  0  0  0  0  0  0  0
    0.7192   -0.4820   -0.1164 C   0  0  0  0  0  0  0  0  0  0  0  0
   -0.3120   -1.4430   -0.1411 C   0  0  0  0  0  0  0  0  0  0  0  0
   -2.4342   -1.7870   -0.0024 H   0  0  0  0  0  0  0  0  0  0  0  0
   -2.9956    0.6002    0.3216 H   0  0  0  0  0  0  0  0  0  0  0  0
   -1.1993    2.3231    0.3702 H   0  0  0  0  0  0  0  0  0  0  0  0
    3.8201    0.4241   -0.2722 H   0  0  0  0  0  0  0  0  0  0  0  0
   -0.0623   -2.4898   -0.2834 H   0  0  0  0  0  0  0  0  0  0  0  0
  1  2  2  0
  2  3  1  0
  3  4  2  0
  4  5  1  0
  5  6  1  0
  6  7  2  0
  7  8  1  0
  8  9  2  0
  8  4  1  0
  9  1  1  0
  1 10  1  0
  2 11  1  0
  3 12  1  0
  6 13  1  0
  9 14  1  0
M  END
>  <Energy>  (1) 
19.054799678929815

>  <Real charge>  (1) 
0

>  <Mult>  (1) 
1

$$$$
