mol_26 2
     RDKit          3D

 24 23  0  0  0  0  0  0  0  0999 V2000
   -2.6962   -1.2539   -0.1753 C   0  0  0  0  0  0  0  0  0  0  0  0
   -2.5112    0.2078   -0.5530 C   0  0  0  0  0  0  0  0  0  0  0  0
   -1.0433    0.6322   -0.6459 C   0  0  0  0  0  0  0  0  0  0  0  0
   -0.3132    0.5753    0.6983 C   0  0  0  0  0  0  0  0  0  0  0  0
    1.0909    1.1873    0.6507 C   0  0  0  0  0  0  0  0  0  0  0  0
    2.0653    0.5331   -0.3357 C   0  0  0  0  0  0  0  0  0  0  0  0
    2.3033   -0.9541   -0.0969 C   0  0  0  0  0  0  0  0  0  0  0  0
    2.7718   -1.1888    1.2232 O   0  0  0  0  0  0  0  0  0  0  0  0
   -2.3464   -1.4529    0.8418 H   0  0  0  0  0  0  0  0  0  0  0  0
   -2.1532   -1.9095   -0.8633 H   0  0  0  0  0  0  0  0  0  0  0  0
   -3.7569   -1.5214   -0.2187 H   0  0  0  0  0  0  0  0  0  0  0  0
   -2.9841    0.3783   -1.5275 H   0  0  0  0  0  0  0  0  0  0  0  0
   -3.0385    0.8412    0.1698 H   0  0  0  0  0  0  0  0  0  0  0  0
   -1.0068    1.6586   -1.0312 H   0  0  0  0  0  0  0  0  0  0  0  0
   -0.5337   -0.0018   -1.3803 H   0  0  0  0  0  0  0  0  0  0  0  0
   -0.2505   -0.4585    1.0539 H   0  0  0  0  0  0  0  0  0  0  0  0
   -0.8972    1.1252    1.4469 H   0  0  0  0  0  0  0  0  0  0  0  0
    1.0058    2.2514    0.3970 H   0  0  0  0  0  0  0  0  0  0  0  0
    1.5197    1.1494    1.6598 H   0  0  0  0  0  0  0  0  0  0  0  0
    3.0241    1.0591   -0.2446 H   0  0  0  0  0  0  0  0  0  0  0  0
    1.7216    0.6858   -1.3647 H   0  0  0  0  0  0  0  0  0  0  0  0
    1.3880   -1.5342   -0.2450 H   0  0  0  0  0  0  0  0  0  0  0  0
    3.0520   -1.3353   -0.7990 H   0  0  0  0  0  0  0  0  0  0  0  0
    3.5887   -0.6744    1.3396 H   0  0  0  0  0  0  0  0  0  0  0  0
  1  2  1  0
  2  3  1  0
  3  4  1  0
  4  5  1  0
  5  6  1  0
  6  7  1  0
  7  8  1  0
  1  9  1  0
  1 10  1  0
  1 11  1  0
  2 12  1  0
  2 13  1  0
  3 14  1  0
  3 15  1  0
  4 16  1  0
  4 17  1  0
  5 18  1  0
  5 19  1  0
  6 20  1  0
  6 21  1  0
  7 22  1  0
  7 23  1  0
  8 24  1  0
M  END
>  <Energy>  (1) 
-0.18897821092008632

>  <Real charge>  (1) 
0

>  <Mult>  (1) 
1

$$$$
mol_26 1
     RDKit          3D

 24 23  0  0  0  0  0  0  0  0999 V2000
    3.3322   -0.2503   -0.0214 C   0  0  0  0  0  0  0  0  0  0  0  0
    2.4959    0.1167    1.1947 C   0  0  0  0  0  0  0  0  0  0  0  0
    1.0366    0.4347    0.8583 C   0  0  0  0  0  0  0  0  0  0  0  0
    0.2683   -0.7708    0.3101 C   0  0  0  0  0  0  0  0  0  0  0  0
   -1.2393   -0.5239    0.1824 C   0  0  0  0  0  0  0  0  0  0  0  0
   -1.5938    0.5366   -0.8650 C   0  0  0  0  0  0  0  0  0  0  0  0
   -3.0989    0.7460   -1.0023 C   0  0  0  0  0  0  0  0  0  0  0  0
   -3.7289   -0.4041   -1.5475 O   0  0  0  0  0  0  0  0  0  0  0  0
    2.9986   -1.1914   -0.4683 H   0  0  0  0  0  0  0  0  0  0  0  0
    4.3808   -0.3745    0.2676 H   0  0  0  0  0  0  0  0  0  0  0  0
    3.2816    0.5330   -0.7843 H   0  0  0  0  0  0  0  0  0  0  0  0
    2.9421    0.9976    1.6717 H   0  0  0  0  0  0  0  0  0  0  0  0
    2.5415   -0.6970    1.9278 H   0  0  0  0  0  0  0  0  0  0  0  0
    0.5442    0.7904    1.7717 H   0  0  0  0  0  0  0  0  0  0  0  0
    1.0080    1.2606    0.1387 H   0  0  0  0  0  0  0  0  0  0  0  0
    0.6684   -1.0612   -0.6680 H   0  0  0  0  0  0  0  0  0  0  0  0
    0.4176   -1.6255    0.9814 H   0  0  0  0  0  0  0  0  0  0  0  0
   -1.7114   -1.4760   -0.0866 H   0  0  0  0  0  0  0  0  0  0  0  0
   -1.6481   -0.2327    1.1575 H   0  0  0  0  0  0  0  0  0  0  0  0
   -1.1810    0.2306   -1.8337 H   0  0  0  0  0  0  0  0  0  0  0  0
   -1.1383    1.4949   -0.5946 H   0  0  0  0  0  0  0  0  0  0  0  0
   -3.2929    1.5800   -1.6840 H   0  0  0  0  0  0  0  0  0  0  0  0
   -3.5629    0.9839   -0.0395 H   0  0  0  0  0  0  0  0  0  0  0  0
   -3.7204   -1.0975   -0.8668 H   0  0  0  0  0  0  0  0  0  0  0  0
  1  2  1  0
  2  3  1  0
  3  4  1  0
  4  5  1  0
  5  6  1  0
  6  7  1  0
  7  8  1  0
  1  9  1  0
  1 10  1  0
  1 11  1  0
  2 12  1  0
  2 13  1  0
  3 14  1  0
  3 15  1  0
  4 16  1  0
  4 17  1  0
  5 18  1  0
  5 19  1  0
  6 20  1  0
  6 21  1  0
  7 22  1  0
  7 23  1  0
  8 24  1  0
M  END
>  <Energy>  (2) 
-0.08507085574012914

>  <Real charge>  (2) 
0

>  <Mult>  (2) 
1

$$$$
