mol_16 2
     RDKit          3D

 11 10  0  0  0  0  0  0  0  0999 V2000
   -1.2282    0.2817   -0.2669 C   0  0  0  0  0  0  0  0  0  0  0  0
   -0.0548   -0.3350    0.4804 C   0  0  0  0  0  0  0  0  0  0  0  0
    1.2613   -0.0929   -0.2441 C   0  0  0  0  0  0  0  0  0  0  0  0
    0.0337    0.3534    2.1268 Cl  0  0  0  0  0  0  0  0  0  0  0  0
   -1.3144   -0.1479   -1.2707 H   0  0  0  0  0  0  0  0  0  0  0  0
   -2.1712    0.0917    0.2571 H   0  0  0  0  0  0  0  0  0  0  0  0
   -1.1124    1.3658   -0.3749 H   0  0  0  0  0  0  0  0  0  0  0  0
   -0.2178   -1.4115    0.5947 H   0  0  0  0  0  0  0  0  0  0  0  0
    1.2351   -0.5315   -1.2474 H   0  0  0  0  0  0  0  0  0  0  0  0
    2.0971   -0.5505    0.2961 H   0  0  0  0  0  0  0  0  0  0  0  0
    1.4715    0.9770   -0.3513 H   0  0  0  0  0  0  0  0  0  0  0  0
  1  2  1  0
  2  3  1  0
  2  4  1  0
  1  5  1  0
  1  6  1  0
  1  7  1  0
  2  8  1  0
  3  9  1  0
  3 10  1  0
  3 11  1  0
M  END
>  <Energy>  (1) 
0.2204696361217356

>  <Real charge>  (1) 
0

>  <Mult>  (1) 
1

$$$$
