mol_46 2
     RDKit          3D

 24 23  0  0  0  0  0  0  0  0999 V2000
   -3.6477    0.1034    0.3955 C   0  0  0  0  0  0  0  0  0  0  0  0
   -2.2388    0.3111   -0.1395 C   0  0  0  0  0  0  0  0  0  0  0  0
   -1.2679   -0.7228    0.4323 C   0  0  0  0  0  0  0  0  0  0  0  0
    0.1411   -0.6350   -0.1655 C   0  0  0  0  0  0  0  0  0  0  0  0
    0.8738    0.6615    0.2009 C   0  0  0  0  0  0  0  0  0  0  0  0
    2.3197    0.7478   -0.3072 C   0  0  0  0  0  0  0  0  0  0  0  0
    3.2403   -0.3229    0.2631 C   0  0  0  0  0  0  0  0  0  0  0  0
    2.3482    0.6906   -1.7303 O   0  0  0  0  0  0  0  0  0  0  0  0
   -3.6700    0.1936    1.4863 H   0  0  0  0  0  0  0  0  0  0  0  0
   -4.0290   -0.8861    0.1241 H   0  0  0  0  0  0  0  0  0  0  0  0
   -4.3259    0.8544   -0.0217 H   0  0  0  0  0  0  0  0  0  0  0  0
   -2.2562    0.2418   -1.2333 H   0  0  0  0  0  0  0  0  0  0  0  0
   -1.9133    1.3242    0.1189 H   0  0  0  0  0  0  0  0  0  0  0  0
   -1.2124   -0.6167    1.5226 H   0  0  0  0  0  0  0  0  0  0  0  0
   -1.6597   -1.7283    0.2335 H   0  0  0  0  0  0  0  0  0  0  0  0
    0.7106   -1.4948    0.2042 H   0  0  0  0  0  0  0  0  0  0  0  0
    0.0778   -0.7387   -1.2548 H   0  0  0  0  0  0  0  0  0  0  0  0
    0.3214    1.5065   -0.2269 H   0  0  0  0  0  0  0  0  0  0  0  0
    0.8684    0.7885    1.2903 H   0  0  0  0  0  0  0  0  0  0  0  0
    2.7182    1.7291   -0.0252 H   0  0  0  0  0  0  0  0  0  0  0  0
    4.2703   -0.1445   -0.0652 H   0  0  0  0  0  0  0  0  0  0  0  0
    2.9747   -1.3214   -0.0983 H   0  0  0  0  0  0  0  0  0  0  0  0
    3.2208   -0.3233    1.3569 H   0  0  0  0  0  0  0  0  0  0  0  0
    2.1357   -0.2181   -2.0020 H   0  0  0  0  0  0  0  0  0  0  0  0
  1  2  1  0
  2  3  1  0
  3  4  1  0
  4  5  1  0
  5  6  1  0
  6  7  1  0
  6  8  1  0
  1  9  1  0
  1 10  1  0
  1 11  1  0
  2 12  1  0
  2 13  1  0
  3 14  1  0
  3 15  1  0
  4 16  1  0
  4 17  1  0
  5 18  1  0
  5 19  1  0
  6 20  1  0
  7 21  1  0
  7 22  1  0
  7 23  1  0
  8 24  1  0
M  END
>  <Energy>  (1) 
2.5802737988326947

>  <Real charge>  (1) 
0

>  <Mult>  (1) 
1

$$$$
mol_46 1
     RDKit          3D

 24 23  0  0  0  0  0  0  0  0999 V2000
    2.7474   -0.7372    0.6693 C   0  0  0  0  0  0  0  0  0  0  0  0
    2.4014    0.2661   -0.4196 C   0  0  0  0  0  0  0  0  0  0  0  0
    1.3169    1.2657   -0.0100 C   0  0  0  0  0  0  0  0  0  0  0  0
   -0.0312    0.6605    0.3984 C   0  0  0  0  0  0  0  0  0  0  0  0
   -0.7020   -0.1402   -0.7241 C   0  0  0  0  0  0  0  0  0  0  0  0
   -2.0723   -0.7218   -0.3505 C   0  0  0  0  0  0  0  0  0  0  0  0
   -3.1208    0.3383   -0.0462 C   0  0  0  0  0  0  0  0  0  0  0  0
   -1.9550   -1.5737    0.7852 O   0  0  0  0  0  0  0  0  0  0  0  0
    3.0224   -0.2293    1.5990 H   0  0  0  0  0  0  0  0  0  0  0  0
    1.9094   -1.4096    0.8756 H   0  0  0  0  0  0  0  0  0  0  0  0
    3.5963   -1.3534    0.3560 H   0  0  0  0  0  0  0  0  0  0  0  0
    3.3076    0.8288   -0.6750 H   0  0  0  0  0  0  0  0  0  0  0  0
    2.1056   -0.2677   -1.3292 H   0  0  0  0  0  0  0  0  0  0  0  0
    1.6912    1.8676    0.8276 H   0  0  0  0  0  0  0  0  0  0  0  0
    1.1560    1.9635   -0.8413 H   0  0  0  0  0  0  0  0  0  0  0  0
    0.0968    0.0328    1.2872 H   0  0  0  0  0  0  0  0  0  0  0  0
   -0.6844    1.4886    0.6966 H   0  0  0  0  0  0  0  0  0  0  0  0
   -0.8054    0.4902   -1.6155 H   0  0  0  0  0  0  0  0  0  0  0  0
   -0.0486   -0.9779   -0.9945 H   0  0  0  0  0  0  0  0  0  0  0  0
   -2.4321   -1.3355   -1.1846 H   0  0  0  0  0  0  0  0  0  0  0  0
   -4.0956   -0.1348    0.1177 H   0  0  0  0  0  0  0  0  0  0  0  0
   -3.2179    1.0520   -0.8696 H   0  0  0  0  0  0  0  0  0  0  0  0
   -2.8897    0.8834    0.8746 H   0  0  0  0  0  0  0  0  0  0  0  0
   -1.2959   -2.2564    0.5728 H   0  0  0  0  0  0  0  0  0  0  0  0
  1  2  1  0
  2  3  1  0
  3  4  1  0
  4  5  1  0
  5  6  1  0
  6  7  1  0
  6  8  1  0
  1  9  1  0
  1 10  1  0
  1 11  1  0
  2 12  1  0
  2 13  1  0
  3 14  1  0
  3 15  1  0
  4 16  1  0
  4 17  1  0
  5 18  1  0
  5 19  1  0
  6 20  1  0
  7 21  1  0
  7 22  1  0
  7 23  1  0
  8 24  1  0
M  END
>  <Energy>  (2) 
2.6080178236481517

>  <Real charge>  (2) 
0

>  <Mult>  (2) 
1

$$$$
