mol_64 1
     RDKit          3D

 15 15  0  0  0  0  0  0  0  0999 V2000
   -2.4185    0.4217    0.7782 N   0  0  0  0  0  0  0  0  0  0  0  0
   -1.1299    0.1816    0.2872 C   0  0  0  0  0  0  0  0  0  0  0  0
   -0.3675   -0.8738    0.7978 C   0  0  0  0  0  0  0  0  0  0  0  0
    0.9618   -1.0538    0.4032 C   0  0  0  0  0  0  0  0  0  0  0  0
    1.5409   -0.1458   -0.4754 C   0  0  0  0  0  0  0  0  0  0  0  0
    2.8336   -0.2784   -0.8866 O   0  0  0  0  0  0  0  0  0  0  0  0
    0.8178    0.9412   -0.9480 C   0  0  0  0  0  0  0  0  0  0  0  0
   -0.5093    1.1149   -0.5480 C   0  0  0  0  0  0  0  0  0  0  0  0
   -2.9928    0.9852    0.1591 H   0  0  0  0  0  0  0  0  0  0  0  0
   -2.8993   -0.4138    1.0956 H   0  0  0  0  0  0  0  0  0  0  0  0
   -0.8054   -1.5675    1.5104 H   0  0  0  0  0  0  0  0  0  0  0  0
    1.5239   -1.8923    0.8007 H   0  0  0  0  0  0  0  0  0  0  0  0
    3.2123   -1.0664   -0.4641 H   0  0  0  0  0  0  0  0  0  0  0  0
    1.2870    1.6600   -1.6130 H   0  0  0  0  0  0  0  0  0  0  0  0
   -1.0546    1.9872   -0.8972 H   0  0  0  0  0  0  0  0  0  0  0  0
  1  2  1  0
  2  3  2  0
  3  4  1  0
  4  5  2  0
  5  6  1  0
  5  7  1  0
  7  8  2  0
  8  2  1  0
  1  9  1  0
  1 10  1  0
  3 11  1  0
  4 12  1  0
  6 13  1  0
  7 14  1  0
  8 15  1  0
M  END
>  <Energy>  (1) 
-5.100068325463328

>  <Real charge>  (1) 
0

>  <Mult>  (1) 
1

$$$$
