mol_51 2
     RDKit          3D

 22 21  0  0  0  0  0  0  0  0999 V2000
    3.0297    1.0669   -0.6925 C   0  0  0  0  0  0  0  0  0  0  0  0
    1.7671    1.2290    0.1390 C   0  0  0  0  0  0  0  0  0  0  0  0
    0.8789   -0.0134    0.0572 C   0  0  0  0  0  0  0  0  0  0  0  0
   -0.3917    0.1587    0.8924 C   0  0  0  0  0  0  0  0  0  0  0  0
   -1.2619   -1.1034    0.9499 C   0  0  0  0  0  0  0  0  0  0  0  0
   -1.8127   -1.5820   -0.3949 C   0  0  0  0  0  0  0  0  0  0  0  0
   -2.7341   -0.6098   -1.0014 C   0  0  0  0  0  0  0  0  0  0  0  0
   -3.4871    0.1812   -1.5008 C   0  0  0  0  0  0  0  0  0  0  0  0
    3.6226    0.2155   -0.3434 H   0  0  0  0  0  0  0  0  0  0  0  0
    3.6498    1.9658   -0.6191 H   0  0  0  0  0  0  0  0  0  0  0  0
    2.7866    0.9071   -1.7478 H   0  0  0  0  0  0  0  0  0  0  0  0
    1.2133    2.1064   -0.2150 H   0  0  0  0  0  0  0  0  0  0  0  0
    2.0461    1.4200    1.1818 H   0  0  0  0  0  0  0  0  0  0  0  0
    1.4374   -0.8878    0.4123 H   0  0  0  0  0  0  0  0  0  0  0  0
    0.6178   -0.1968   -0.9909 H   0  0  0  0  0  0  0  0  0  0  0  0
   -0.9763    1.0025    0.5075 H   0  0  0  0  0  0  0  0  0  0  0  0
   -0.1104    0.4211    1.9202 H   0  0  0  0  0  0  0  0  0  0  0  0
   -2.0977   -0.9133    1.6358 H   0  0  0  0  0  0  0  0  0  0  0  0
   -0.6747   -1.9164    1.3951 H   0  0  0  0  0  0  0  0  0  0  0  0
   -0.9965   -1.8111   -1.0878 H   0  0  0  0  0  0  0  0  0  0  0  0
   -2.3512   -2.5239   -0.2336 H   0  0  0  0  0  0  0  0  0  0  0  0
   -4.1551    0.8835   -1.9437 H   0  0  0  0  0  0  0  0  0  0  0  0
  1  2  1  0
  2  3  1  0
  3  4  1  0
  4  5  1  0
  5  6  1  0
  6  7  1  0
  7  8  3  0
  1  9  1  0
  1 10  1  0
  1 11  1  0
  2 12  1  0
  2 13  1  0
  3 14  1  0
  3 15  1  0
  4 16  1  0
  4 17  1  0
  5 18  1  0
  5 19  1  0
  6 20  1  0
  6 21  1  0
  8 22  1  0
M  END
>  <Energy>  (1) 
0.5721189406480469

>  <Real charge>  (1) 
0

>  <Mult>  (1) 
1

$$$$
mol_51 1
     RDKit          3D

 22 21  0  0  0  0  0  0  0  0999 V2000
   -2.0120   -1.0943    1.5911 C   0  0  0  0  0  0  0  0  0  0  0  0
   -1.6166   -1.5945    0.2107 C   0  0  0  0  0  0  0  0  0  0  0  0
   -1.3761   -0.4722   -0.8018 C   0  0  0  0  0  0  0  0  0  0  0  0
   -0.2774    0.5320   -0.4373 C   0  0  0  0  0  0  0  0  0  0  0  0
    1.1058   -0.1100   -0.2808 C   0  0  0  0  0  0  0  0  0  0  0  0
    2.2041    0.9141    0.0152 C   0  0  0  0  0  0  0  0  0  0  0  0
    2.5053    1.7631   -1.1473 C   0  0  0  0  0  0  0  0  0  0  0  0
    2.7552    2.4579   -2.0943 C   0  0  0  0  0  0  0  0  0  0  0  0
   -2.2694   -1.9397    2.2373 H   0  0  0  0  0  0  0  0  0  0  0  0
   -1.1929   -0.5497    2.0699 H   0  0  0  0  0  0  0  0  0  0  0  0
   -2.8827   -0.4334    1.5353 H   0  0  0  0  0  0  0  0  0  0  0  0
   -2.4216   -2.2344   -0.1711 H   0  0  0  0  0  0  0  0  0  0  0  0
   -0.7300   -2.2326    0.2921 H   0  0  0  0  0  0  0  0  0  0  0  0
   -2.3134    0.0799   -0.9457 H   0  0  0  0  0  0  0  0  0  0  0  0
   -1.1351   -0.9255   -1.7714 H   0  0  0  0  0  0  0  0  0  0  0  0
   -0.5455    1.0645    0.4824 H   0  0  0  0  0  0  0  0  0  0  0  0
   -0.2433    1.2885   -1.2307 H   0  0  0  0  0  0  0  0  0  0  0  0
    1.3551   -0.6785   -1.1855 H   0  0  0  0  0  0  0  0  0  0  0  0
    1.0812   -0.8234    0.5509 H   0  0  0  0  0  0  0  0  0  0  0  0
    1.9174    1.5360    0.8710 H   0  0  0  0  0  0  0  0  0  0  0  0
    3.1155    0.3777    0.3050 H   0  0  0  0  0  0  0  0  0  0  0  0
    2.9766    3.0744   -2.9349 H   0  0  0  0  0  0  0  0  0  0  0  0
  1  2  1  0
  2  3  1  0
  3  4  1  0
  4  5  1  0
  5  6  1  0
  6  7  1  0
  7  8  3  0
  1  9  1  0
  1 10  1  0
  1 11  1  0
  2 12  1  0
  2 13  1  0
  3 14  1  0
  3 15  1  0
  4 16  1  0
  4 17  1  0
  5 18  1  0
  5 19  1  0
  6 20  1  0
  6 21  1  0
  8 22  1  0
M  END
>  <Energy>  (2) 
1.2984646151568857

>  <Real charge>  (2) 
0

>  <Mult>  (2) 
1

$$$$
