mol_34 1
     RDKit          3D

  6  5  0  0  0  0  0  0  0  0999 V2000
    1.3753    1.4682   -0.4761 Cl  0  0  0  0  0  0  0  0  0  0  0  0
    0.5599    0.0363    0.0266 C   0  0  0  0  0  0  0  0  0  0  0  0
   -0.7711   -0.0499   -0.0366 C   0  0  0  0  0  0  0  0  0  0  0  0
    1.5017   -1.2819    0.6127 Cl  0  0  0  0  0  0  0  0  0  0  0  0
   -1.3725    0.7744   -0.4041 H   0  0  0  0  0  0  0  0  0  0  0  0
   -1.2934   -0.9471    0.2775 H   0  0  0  0  0  0  0  0  0  0  0  0
  1  2  1  0
  2  3  2  3
  2  4  1  0
  3  5  1  0
  3  6  1  0
M  END
>  <Energy>  (1) 
-5.176743014472809

>  <Real charge>  (1) 
0

>  <Mult>  (1) 
1

$$$$
