mol_18 1
     RDKit          3D

 13 13  0  0  0  0  0  0  0  0999 V2000
    3.3767   -0.2950    1.3851 N   0  0  0  0  0  0  0  0  0  0  0  0
    2.3063   -0.2015    0.9460 C   0  0  0  0  0  0  0  0  0  0  0  0
    0.9843   -0.0860    0.4037 C   0  0  0  0  0  0  0  0  0  0  0  0
    0.4397    1.1765    0.1438 C   0  0  0  0  0  0  0  0  0  0  0  0
   -0.8480    1.2874   -0.3844 C   0  0  0  0  0  0  0  0  0  0  0  0
   -1.5929    0.1392   -0.6534 C   0  0  0  0  0  0  0  0  0  0  0  0
   -1.0538   -1.1212   -0.3957 C   0  0  0  0  0  0  0  0  0  0  0  0
    0.2337   -1.2353    0.1325 C   0  0  0  0  0  0  0  0  0  0  0  0
    1.0126    2.0786    0.3500 H   0  0  0  0  0  0  0  0  0  0  0  0
   -1.2708    2.2688   -0.5863 H   0  0  0  0  0  0  0  0  0  0  0  0
   -2.5959    0.2268   -1.0648 H   0  0  0  0  0  0  0  0  0  0  0  0
   -1.6368   -2.0147   -0.6063 H   0  0  0  0  0  0  0  0  0  0  0  0
    0.6450   -2.2234    0.3299 H   0  0  0  0  0  0  0  0  0  0  0  0
  1  2  3  0
  2  3  1  0
  3  4  2  0
  4  5  1  0
  5  6  2  0
  6  7  1  0
  7  8  2  0
  8  3  1  0
  4  9  1  0
  5 10  1  0
  6 11  1  0
  7 12  1  0
  8 13  1  0
M  END
>  <Energy>  (1) 
29.497996803252438

>  <Real charge>  (1) 
0

>  <Mult>  (1) 
1

$$$$
