mol_56 2
     RDKit          3D

 16 16  0  0  0  0  0  0  0  0999 V2000
    2.1185    0.2495    0.0569 C   0  0  0  0  0  0  0  0  0  0  0  0
    0.6210    0.1669    0.0072 C   0  0  0  0  0  0  0  0  0  0  0  0
   -0.1293    1.3443   -0.1411 C   0  0  0  0  0  0  0  0  0  0  0  0
   -1.5249    1.3031   -0.1910 C   0  0  0  0  0  0  0  0  0  0  0  0
   -2.1904    0.0839   -0.0934 C   0  0  0  0  0  0  0  0  0  0  0  0
   -1.4598   -1.0930    0.0540 C   0  0  0  0  0  0  0  0  0  0  0  0
   -0.0674   -1.0488    0.1035 C   0  0  0  0  0  0  0  0  0  0  0  0
    0.5656   -2.2508    0.2498 O   0  0  0  0  0  0  0  0  0  0  0  0
    2.5569   -0.3222   -0.7674 H   0  0  0  0  0  0  0  0  0  0  0  0
    2.4880   -0.1423    1.0100 H   0  0  0  0  0  0  0  0  0  0  0  0
    2.4700    1.2827   -0.0340 H   0  0  0  0  0  0  0  0  0  0  0  0
    0.3690    2.3084   -0.2193 H   0  0  0  0  0  0  0  0  0  0  0  0
   -2.0916    2.2235   -0.3062 H   0  0  0  0  0  0  0  0  0  0  0  0
   -3.2756    0.0484   -0.1319 H   0  0  0  0  0  0  0  0  0  0  0  0
   -1.9736   -2.0472    0.1307 H   0  0  0  0  0  0  0  0  0  0  0  0
    1.5236   -2.1068    0.2723 H   0  0  0  0  0  0  0  0  0  0  0  0
  1  2  1  0
  2  3  2  0
  3  4  1  0
  4  5  2  0
  5  6  1  0
  6  7  2  0
  7  8  1  0
  7  2  1  0
  1  9  1  0
  1 10  1  0
  1 11  1  0
  3 12  1  0
  4 13  1  0
  5 14  1  0
  6 15  1  0
  8 16  1  0
M  END
>  <Energy>  (1) 
9.76962211442935

>  <Real charge>  (1) 
0

>  <Mult>  (1) 
1

$$$$
