mol_45 2
     RDKit          3D

 14 13  0  0  0  0  0  0  0  0999 V2000
   -0.2805    1.3438   -0.3630 C   0  0  0  0  0  0  0  0  0  0  0  0
   -0.2483   -0.0880    0.1596 C   0  0  0  0  0  0  0  0  0  0  0  0
   -1.3542   -0.9198   -0.4786 C   0  0  0  0  0  0  0  0  0  0  0  0
    1.0047   -0.7031   -0.1942 O   0  0  0  0  0  0  0  0  0  0  0  0
    2.0405   -0.4650    0.6477 C   0  0  0  0  0  0  0  0  0  0  0  0
    2.0196    0.2112    1.6629 O   0  0  0  0  0  0  0  0  0  0  0  0
   -1.2419    1.8214   -0.1505 H   0  0  0  0  0  0  0  0  0  0  0  0
   -0.1062    1.3699   -1.4444 H   0  0  0  0  0  0  0  0  0  0  0  0
    0.5110    1.9449    0.0964 H   0  0  0  0  0  0  0  0  0  0  0  0
   -0.3882   -0.1008    1.2475 H   0  0  0  0  0  0  0  0  0  0  0  0
   -1.3124   -1.9520   -0.1140 H   0  0  0  0  0  0  0  0  0  0  0  0
   -1.2345   -0.9660   -1.5668 H   0  0  0  0  0  0  0  0  0  0  0  0
   -2.3428   -0.5097   -0.2508 H   0  0  0  0  0  0  0  0  0  0  0  0
    2.9331   -0.9871    0.2696 H   0  0  0  0  0  0  0  0  0  0  0  0
  1  2  1  0
  2  3  1  0
  2  4  1  0
  4  5  1  0
  5  6  2  0
  1  7  1  0
  1  8  1  0
  1  9  1  0
  2 10  1  0
  3 11  1  0
  3 12  1  0
  3 13  1  0
  5 14  1  0
M  END
>  <Energy>  (1) 
-7.5322731647786245

>  <Real charge>  (1) 
0

>  <Mult>  (1) 
1

$$$$
