mol_30 2
     RDKit          3D

 29 28  0  0  0  0  0  0  0  0999 V2000
    4.6766    0.2907    0.2135 C   0  0  0  0  0  0  0  0  0  0  0  0
    3.3638    0.3972    0.9731 C   0  0  0  0  0  0  0  0  0  0  0  0
    2.2038   -0.1976    0.1734 C   0  0  0  0  0  0  0  0  0  0  0  0
    0.8856   -0.0834    0.9422 C   0  0  0  0  0  0  0  0  0  0  0  0
   -0.2917   -0.7683    0.2411 C   0  0  0  0  0  0  0  0  0  0  0  0
   -0.6838   -0.1006   -1.0811 C   0  0  0  0  0  0  0  0  0  0  0  0
   -1.9015   -0.7587   -1.7254 C   0  0  0  0  0  0  0  0  0  0  0  0
   -3.1707   -0.5164   -0.9478 C   0  0  0  0  0  0  0  0  0  0  0  0
   -3.7697   -1.3828   -0.3253 O   0  0  0  0  0  0  0  0  0  0  0  0
   -3.5480    0.7882   -1.0432 O   0  0  0  0  0  0  0  0  0  0  0  0
   -4.7432    1.0993   -0.3266 C   0  0  0  0  0  0  0  0  0  0  0  0
    4.6244    0.8300   -0.7377 H   0  0  0  0  0  0  0  0  0  0  0  0
    4.9245   -0.7546    0.0032 H   0  0  0  0  0  0  0  0  0  0  0  0
    5.4919    0.7211    0.8035 H   0  0  0  0  0  0  0  0  0  0  0  0
    3.4611   -0.1239    1.9326 H   0  0  0  0  0  0  0  0  0  0  0  0
    3.1610    1.4514    1.1950 H   0  0  0  0  0  0  0  0  0  0  0  0
    2.4118   -1.2517   -0.0461 H   0  0  0  0  0  0  0  0  0  0  0  0
    2.1263    0.3255   -0.7862 H   0  0  0  0  0  0  0  0  0  0  0  0
    0.6469    0.9732    1.1143 H   0  0  0  0  0  0  0  0  0  0  0  0
    1.0077   -0.5440    1.9306 H   0  0  0  0  0  0  0  0  0  0  0  0
   -0.0512   -1.8239    0.0658 H   0  0  0  0  0  0  0  0  0  0  0  0
   -1.1472   -0.7492    0.9267 H   0  0  0  0  0  0  0  0  0  0  0  0
    0.1498   -0.1697   -1.7886 H   0  0  0  0  0  0  0  0  0  0  0  0
   -0.8749    0.9656   -0.9114 H   0  0  0  0  0  0  0  0  0  0  0  0
   -1.7526   -1.8404   -1.8204 H   0  0  0  0  0  0  0  0  0  0  0  0
   -2.0504   -0.3748   -2.7415 H   0  0  0  0  0  0  0  0  0  0  0  0
   -4.9534    2.1636   -0.4643 H   0  0  0  0  0  0  0  0  0  0  0  0
   -4.6097    0.9084    0.7429 H   0  0  0  0  0  0  0  0  0  0  0  0
   -5.5875    0.5256   -0.7215 H   0  0  0  0  0  0  0  0  0  0  0  0
  1  2  1  0
  2  3  1  0
  3  4  1  0
  4  5  1  0
  5  6  1  0
  6  7  1  0
  7  8  1  0
  8  9  2  0
  8 10  1  0
 10 11  1  0
  1 12  1  0
  1 13  1  0
  1 14  1  0
  2 15  1  0
  2 16  1  0
  3 17  1  0
  3 18  1  0
  4 19  1  0
  4 20  1  0
  5 21  1  0
  5 22  1  0
  6 23  1  0
  6 24  1  0
  7 25  1  0
  7 26  1  0
 11 27  1  0
 11 28  1  0
 11 29  1  0
M  END
>  <Energy>  (1) 
-9.868777931248019

>  <Real charge>  (1) 
0

>  <Mult>  (1) 
1

$$$$
mol_30 1
     RDKit          3D

 29 28  0  0  0  0  0  0  0  0999 V2000
    3.7886    1.2846   -0.9826 C   0  0  0  0  0  0  0  0  0  0  0  0
    2.5706    0.6553   -0.3229 C   0  0  0  0  0  0  0  0  0  0  0  0
    2.8235   -0.8080    0.0330 C   0  0  0  0  0  0  0  0  0  0  0  0
    1.6995   -1.4632    0.8434 C   0  0  0  0  0  0  0  0  0  0  0  0
    0.3580   -1.5666    0.1097 C   0  0  0  0  0  0  0  0  0  0  0  0
   -0.6116   -0.4396    0.4752 C   0  0  0  0  0  0  0  0  0  0  0  0
   -1.9315   -0.5775   -0.2828 C   0  0  0  0  0  0  0  0  0  0  0  0
   -2.9041    0.5232    0.0716 C   0  0  0  0  0  0  0  0  0  0  0  0
   -2.6965    1.4275    0.8676 O   0  0  0  0  0  0  0  0  0  0  0  0
   -4.0570    0.3522   -0.6369 O   0  0  0  0  0  0  0  0  0  0  0  0
   -5.0504    1.3445   -0.3758 C   0  0  0  0  0  0  0  0  0  0  0  0
    3.5838    2.3291   -1.2378 H   0  0  0  0  0  0  0  0  0  0  0  0
    4.0531    0.7552   -1.9036 H   0  0  0  0  0  0  0  0  0  0  0  0
    4.6538    1.2625   -0.3123 H   0  0  0  0  0  0  0  0  0  0  0  0
    2.3182    1.2228    0.5800 H   0  0  0  0  0  0  0  0  0  0  0  0
    1.7242    0.7341   -1.0131 H   0  0  0  0  0  0  0  0  0  0  0  0
    2.9931   -1.3839   -0.8853 H   0  0  0  0  0  0  0  0  0  0  0  0
    3.7480   -0.8799    0.6199 H   0  0  0  0  0  0  0  0  0  0  0  0
    1.5797   -0.9487    1.8043 H   0  0  0  0  0  0  0  0  0  0  0  0
    2.0312   -2.4823    1.0811 H   0  0  0  0  0  0  0  0  0  0  0  0
   -0.1119   -2.5182    0.3901 H   0  0  0  0  0  0  0  0  0  0  0  0
    0.5140   -1.6040   -0.9748 H   0  0  0  0  0  0  0  0  0  0  0  0
   -0.8059   -0.4601    1.5551 H   0  0  0  0  0  0  0  0  0  0  0  0
   -0.1686    0.5377    0.2588 H   0  0  0  0  0  0  0  0  0  0  0  0
   -1.7441   -0.5329   -1.3615 H   0  0  0  0  0  0  0  0  0  0  0  0
   -2.3998   -1.5379   -0.0399 H   0  0  0  0  0  0  0  0  0  0  0  0
   -4.6826    2.3374   -0.6527 H   0  0  0  0  0  0  0  0  0  0  0  0
   -5.9264    1.1165   -0.9893 H   0  0  0  0  0  0  0  0  0  0  0  0
   -5.3491    1.3202    0.6769 H   0  0  0  0  0  0  0  0  0  0  0  0
  1  2  1  0
  2  3  1  0
  3  4  1  0
  4  5  1  0
  5  6  1  0
  6  7  1  0
  7  8  1  0
  8  9  2  0
  8 10  1  0
 10 11  1  0
  1 12  1  0
  1 13  1  0
  1 14  1  0
  2 15  1  0
  2 16  1  0
  3 17  1  0
  3 18  1  0
  4 19  1  0
  4 20  1  0
  5 21  1  0
  5 22  1  0
  6 23  1  0
  6 24  1  0
  7 25  1  0
  7 26  1  0
 11 27  1  0
 11 28  1  0
 11 29  1  0
M  END
>  <Energy>  (2) 
-7.52515383661121

>  <Real charge>  (2) 
0

>  <Mult>  (2) 
1

$$$$
