mol_36 1
     RDKit          3D

 16 15  0  0  0  0  0  0  0  0999 V2000
   -2.2562    0.1226   -0.6068 C   0  0  0  0  0  0  0  0  0  0  0  0
   -1.1421   -0.4260    0.2704 C   0  0  0  0  0  0  0  0  0  0  0  0
    0.1982    0.2339   -0.0485 C   0  0  0  0  0  0  0  0  0  0  0  0
    1.3124   -0.3184    0.8331 C   0  0  0  0  0  0  0  0  0  0  0  0
    2.6209    0.3434    0.4918 C   0  0  0  0  0  0  0  0  0  0  0  0
    3.6405   -0.2814    0.2171 O   0  0  0  0  0  0  0  0  0  0  0  0
   -2.0460   -0.0570   -1.6660 H   0  0  0  0  0  0  0  0  0  0  0  0
   -3.2057   -0.3634   -0.3617 H   0  0  0  0  0  0  0  0  0  0  0  0
   -2.3779    1.2003   -0.4582 H   0  0  0  0  0  0  0  0  0  0  0  0
   -1.3981   -0.2591    1.3232 H   0  0  0  0  0  0  0  0  0  0  0  0
   -1.0684   -1.5096    0.1221 H   0  0  0  0  0  0  0  0  0  0  0  0
    0.4504    0.0730   -1.1042 H   0  0  0  0  0  0  0  0  0  0  0  0
    0.1195    1.3195    0.0910 H   0  0  0  0  0  0  0  0  0  0  0  0
    1.1041   -0.1236    1.8903 H   0  0  0  0  0  0  0  0  0  0  0  0
    1.4168   -1.3999    0.6952 H   0  0  0  0  0  0  0  0  0  0  0  0
    2.6315    1.4456    0.5445 H   0  0  0  0  0  0  0  0  0  0  0  0
  1  2  1  0
  2  3  1  0
  3  4  1  0
  4  5  1  0
  5  6  2  0
  1  7  1  0
  1  8  1  0
  1  9  1  0
  2 10  1  0
  2 11  1  0
  3 12  1  0
  3 13  1  0
  4 14  1  0
  4 15  1  0
  5 16  1  0
M  END
>  <Energy>  (1) 
-1.3917430044021346

>  <Real charge>  (1) 
0

>  <Mult>  (1) 
1

$$$$
mol_36 2
     RDKit          3D

 16 15  0  0  0  0  0  0  0  0999 V2000
   -2.0613   -0.0577    0.2080 C   0  0  0  0  0  0  0  0  0  0  0  0
   -1.0396   -0.1706   -0.9128 C   0  0  0  0  0  0  0  0  0  0  0  0
    0.3287    0.4072   -0.5490 C   0  0  0  0  0  0  0  0  0  0  0  0
    1.0241   -0.3518    0.5763 C   0  0  0  0  0  0  0  0  0  0  0  0
    2.4174    0.1839    0.7753 C   0  0  0  0  0  0  0  0  0  0  0  0
    3.4181   -0.5260    0.7804 O   0  0  0  0  0  0  0  0  0  0  0  0
   -3.0401   -0.4035   -0.1398 H   0  0  0  0  0  0  0  0  0  0  0  0
   -1.7807   -0.6707    1.0696 H   0  0  0  0  0  0  0  0  0  0  0  0
   -2.1671    0.9798    0.5404 H   0  0  0  0  0  0  0  0  0  0  0  0
   -1.4222    0.3661   -1.7892 H   0  0  0  0  0  0  0  0  0  0  0  0
   -0.9347   -1.2217   -1.2060 H   0  0  0  0  0  0  0  0  0  0  0  0
    0.9636    0.3868   -1.4441 H   0  0  0  0  0  0  0  0  0  0  0  0
    0.2233    1.4643   -0.2745 H   0  0  0  0  0  0  0  0  0  0  0  0
    0.4889   -0.2343    1.5234 H   0  0  0  0  0  0  0  0  0  0  0  0
    1.0882   -1.4199    0.3430 H   0  0  0  0  0  0  0  0  0  0  0  0
    2.4936    1.2683    0.9658 H   0  0  0  0  0  0  0  0  0  0  0  0
  1  2  1  0
  2  3  1  0
  3  4  1  0
  4  5  1  0
  5  6  2  0
  1  7  1  0
  1  8  1  0
  1  9  1  0
  2 10  1  0
  2 11  1  0
  3 12  1  0
  3 13  1  0
  4 14  1  0
  4 15  1  0
  5 16  1  0
M  END
>  <Energy>  (2) 
-0.6505208486219747

>  <Real charge>  (2) 
0

>  <Mult>  (2) 
1

$$$$
