mol_40 2
     RDKit          3D

 23 22  0  0  0  0  0  0  0  0999 V2000
    3.6901    0.2314    0.3602 C   0  0  0  0  0  0  0  0  0  0  0  0
    2.3265    0.5632   -0.2388 C   0  0  0  0  0  0  0  0  0  0  0  0
    1.2264   -0.3152    0.3681 C   0  0  0  0  0  0  0  0  0  0  0  0
   -0.1424    0.0201   -0.2367 C   0  0  0  0  0  0  0  0  0  0  0  0
   -1.2450   -0.8531    0.3813 C   0  0  0  0  0  0  0  0  0  0  0  0
   -2.6125   -0.6527   -0.2953 C   0  0  0  0  0  0  0  0  0  0  0  0
   -3.2672    0.6982    0.0148 C   0  0  0  0  0  0  0  0  0  0  0  0
   -3.8725    0.8541    2.0642 I   0  0  0  0  0  0  0  0  0  0  0  0
    3.6824    0.4056    1.4573 H   0  0  0  0  0  0  0  0  0  0  0  0
    4.4653    0.8818   -0.0971 H   0  0  0  0  0  0  0  0  0  0  0  0
    3.9524   -0.8292    0.1587 H   0  0  0  0  0  0  0  0  0  0  0  0
    2.1005    1.6346   -0.0457 H   0  0  0  0  0  0  0  0  0  0  0  0
    2.3689    0.4049   -1.3386 H   0  0  0  0  0  0  0  0  0  0  0  0
    1.4627   -1.3850    0.1750 H   0  0  0  0  0  0  0  0  0  0  0  0
    1.1916   -0.1537    1.4683 H   0  0  0  0  0  0  0  0  0  0  0  0
   -0.3628    1.0921   -0.0484 H   0  0  0  0  0  0  0  0  0  0  0  0
   -0.1082   -0.1485   -1.3356 H   0  0  0  0  0  0  0  0  0  0  0  0
   -0.9620   -1.9219    0.2609 H   0  0  0  0  0  0  0  0  0  0  0  0
   -1.3196   -0.6518    1.4711 H   0  0  0  0  0  0  0  0  0  0  0  0
   -3.2985   -1.4606    0.0393 H   0  0  0  0  0  0  0  0  0  0  0  0
   -2.4984   -0.7568   -1.3964 H   0  0  0  0  0  0  0  0  0  0  0  0
   -2.5944    1.5411   -0.2413 H   0  0  0  0  0  0  0  0  0  0  0  0
   -4.1833    0.8013   -0.6043 H   0  0  0  0  0  0  0  0  0  0  0  0
  1  2  1  0
  2  3  1  0
  3  4  1  0
  4  5  1  0
  5  6  1  0
  6  7  1  0
  7  8  1  0
  1  9  1  0
  1 10  1  0
  1 11  1  0
  2 12  1  0
  2 13  1  0
  3 14  1  0
  3 15  1  0
  4 16  1  0
  4 17  1  0
  5 18  1  0
  5 19  1  0
  6 20  1  0
  6 21  1  0
  7 22  1  0
  7 23  1  0
M  END
>  <Energy>  (1) 
6.058687948111082

>  <Real charge>  (1) 
0

>  <Mult>  (1) 
1

$$$$
mol_40 1
     RDKit          3D

 23 22  0  0  0  0  0  0  0  0999 V2000
   -2.8057    0.9264   -0.4991 C   0  0  0  0  0  0  0  0  0  0  0  0
   -2.3862   -0.3600    0.2113 C   0  0  0  0  0  0  0  0  0  0  0  0
   -1.2362   -0.1488    1.2123 C   0  0  0  0  0  0  0  0  0  0  0  0
    0.0769    0.3665    0.5950 C   0  0  0  0  0  0  0  0  0  0  0  0
    0.7008   -0.6279   -0.3992 C   0  0  0  0  0  0  0  0  0  0  0  0
    2.0566   -0.1468   -0.9400 C   0  0  0  0  0  0  0  0  0  0  0  0
    3.1842   -0.2841    0.0850 C   0  0  0  0  0  0  0  0  0  0  0  0
    5.0551    0.2338   -0.8083 I   0  0  0  0  0  0  0  0  0  0  0  0
   -2.0197    1.2546   -1.2104 H   0  0  0  0  0  0  0  0  0  0  0  0
   -3.0012    1.7331    0.2389 H   0  0  0  0  0  0  0  0  0  0  0  0
   -3.7359    0.7422   -1.0768 H   0  0  0  0  0  0  0  0  0  0  0  0
   -3.2638   -0.7468    0.7734 H   0  0  0  0  0  0  0  0  0  0  0  0
   -2.1181   -1.1331   -0.5385 H   0  0  0  0  0  0  0  0  0  0  0  0
   -1.5679    0.5738    1.9897 H   0  0  0  0  0  0  0  0  0  0  0  0
   -1.0368   -1.1117    1.7313 H   0  0  0  0  0  0  0  0  0  0  0  0
   -0.0885    1.3469    0.1007 H   0  0  0  0  0  0  0  0  0  0  0  0
    0.7845    0.5404    1.4322 H   0  0  0  0  0  0  0  0  0  0  0  0
    0.8162   -1.6259    0.0777 H   0  0  0  0  0  0  0  0  0  0  0  0
    0.0202   -0.7439   -1.2688 H   0  0  0  0  0  0  0  0  0  0  0  0
    2.3150   -0.7648   -1.8272 H   0  0  0  0  0  0  0  0  0  0  0  0
    1.9801    0.9102   -1.2761 H   0  0  0  0  0  0  0  0  0  0  0  0
    3.2491   -1.3307    0.4512 H   0  0  0  0  0  0  0  0  0  0  0  0
    3.0211    0.3965    0.9454 H   0  0  0  0  0  0  0  0  0  0  0  0
  1  2  1  0
  2  3  1  0
  3  4  1  0
  4  5  1  0
  5  6  1  0
  6  7  1  0
  7  8  1  0
  1  9  1  0
  1 10  1  0
  1 11  1  0
  2 12  1  0
  2 13  1  0
  3 14  1  0
  3 15  1  0
  4 16  1  0
  4 17  1  0
  5 18  1  0
  5 19  1  0
  6 20  1  0
  6 21  1  0
  7 22  1  0
  7 23  1  0
M  END
>  <Energy>  (2) 
7.594828837248046

>  <Real charge>  (2) 
0

>  <Mult>  (2) 
1

$$$$
