mol_5 1
     RDKit          3D

  9  9  0  0  0  0  0  0  0  0999 V2000
   -0.6989   -0.6931    0.2870 C   0  0  0  0  0  0  0  0  0  0  0  0
    0.7019   -0.7177    0.5485 C   0  0  0  0  0  0  0  0  0  0  0  0
    1.2068    0.5435    0.7774 C   0  0  0  0  0  0  0  0  0  0  0  0
   -0.0037    1.7494    0.6769 S   0  0  0  0  0  0  0  0  0  0  0  0
   -1.2092    0.5860    0.3262 C   0  0  0  0  0  0  0  0  0  0  0  0
   -1.3019   -1.5687    0.0804 H   0  0  0  0  0  0  0  0  0  0  0  0
    1.3087   -1.6146    0.5679 H   0  0  0  0  0  0  0  0  0  0  0  0
    2.2289    0.8183    0.9993 H   0  0  0  0  0  0  0  0  0  0  0  0
   -2.2325    0.8968    0.1662 H   0  0  0  0  0  0  0  0  0  0  0  0
  1  2  1  0
  2  3  2  0
  3  4  1  0
  4  5  1  0
  5  1  2  0
  1  6  1  0
  2  7  1  0
  3  8  1  0
  5  9  1  0
M  END
>  <Energy>  (1) 
4.379176530599699

>  <Real charge>  (1) 
0

>  <Mult>  (1) 
1

$$$$
